     9

H     -0.79042506  -0.89819755  -0.05332731
H      0.72815742  -0.97294596  -0.24055199
H      1.84817234   1.56838249   1.88731676
H      0.87073760   0.73440017   1.04865577
H      3.19135468  -0.75170821  -1.10235824
H      2.39148542   0.38607245  -0.45437817
O      0.03503110  -0.89513870   0.43143715
O      1.56409434   1.40795600   0.98779780
O      2.33157930  -0.33144818  -1.10141316
