  768
0.0 19.7295 19.7295 19.7295
H     4.64879540    -5.76766880     6.43286880
H     4.46942900    -7.28222240     6.56657580
H     3.62837650     8.54201700    -1.87733120
H     4.36065030     7.15626130    -2.22319930
H    -7.98445060    -2.36070150     5.23142120
H    -6.80563310    -1.90960080     4.37895920
H    -8.29727950     3.99023030     2.58732070
H    -7.06885040     4.72377630     1.94429450
H    -8.13380550    -2.74980580    -1.65362130
H    -9.58749830    -2.27762530    -1.99293920
H    -0.19098030     0.00975170    -2.41041760
H    -0.94963000     1.38863810    -2.64165640
H     9.71558350     4.64231660    -0.85132380
H     8.55122760     4.29321470     0.03786020
H     2.00106540     6.72508190     7.17828680
H     1.28498710     8.17584370     7.06510940
H     2.90575800     3.34946930    -8.18945410
H     4.05649120     3.73347450    -8.99697250
H    -6.84355940    -8.76362450    -4.35590320
H    -7.70088180    -7.62849040    -3.72531260
H    -0.51594500     4.65556400     0.06640390
H    -2.03410210     4.85771940    -0.45811370
H     6.19640420    -6.61568110     5.03400270
H     7.42585190    -5.71308190     4.76607170
H     6.34684070    -4.21550060    -7.34335900
H     7.23111290    -5.07300930    -8.29038800
H    -1.89070620    -7.73402340     1.45192800
H    -2.37751290    -6.33925840     0.96574190
H     8.08774620    -8.46761970     7.56264880
H     8.66363730    -7.32080070     8.36742100
H    -7.98193340     0.42731550     4.48135920
H    -7.70179340     0.09489940     5.99881610
H    -0.21195750    -6.63780370     3.92183410
H     1.03635560    -5.63261190     4.05606330
H    -0.58527840    -8.69434180     5.39569930
H     0.51661170    -8.78832460     4.23378880
H    -5.48042600    -2.89852250    -6.84569270
H    -4.38786660    -3.90994220    -7.25505380
H     3.60687730     8.08877720     6.81678190
H     5.14276240     8.18622460     6.40581870
H     1.54945980     7.34767110     0.80052050
H     1.51773780     5.92271310     0.11473010
H     3.46012110     7.79228690    -4.33209830
H     2.21568520     8.37843310    -4.94978430
H    -9.16770050    -0.10511290     2.42509610
H    -9.27828150     1.27898350     2.68492710
H    -0.75218880    -2.53443400    -7.25920400
H    -1.33450540    -2.39849470    -5.90174380
H     7.76220960     9.01184670     2.94649760
H     9.01787020     8.51322640     2.15479710
H    -1.82405240    -5.50138440    -7.05087490
H    -2.64002350    -6.49088880    -7.84255410
H     7.31933950    -2.96126220     4.92730490
H     6.84578070    -4.00755950     3.83903960
H    -7.82550960     6.82610960    -6.84101500
H    -8.03543020     7.05655450    -8.36253090
H     7.22187540     7.52387490     9.19868250
H     7.00242210     6.39088810     8.32890150
H     5.19039920     1.19027740     4.12702880
H     6.02084240    -0.15556640     4.57134570
H    -0.87006290    -5.40255990     5.98784820
H    -1.82315090    -5.11588170     7.24895990
H     9.06908770    -7.18671630    -5.26465800
H     8.40051460    -8.53151330    -4.92214210
H    -0.19222590     9.07120270    -8.17235390
H     1.36727790     8.88637640    -8.26222800
H     5.44319430    -3.35027070    -1.66248540
H     4.10530830    -4.16201840    -1.97245680
H     3.06328910    -8.87005040    -1.51264720
H     2.69104400    -9.75144460    -0.24392820
H     7.83722620     5.75280080    -4.63897750
H     7.24658960     6.65626010    -3.51209010
H    -1.11191600     8.21918840    -4.67829000
H    -1.89619020     6.89568180    -5.07277640
H    -6.77556830    -4.97379080     1.95597880
H    -5.78953000    -4.90901520     3.17687740
H     2.09948590     1.58932050    -1.97164190
H     3.43331180     2.23454500    -2.42718690
H     8.76716660    -2.93075640    -4.65162740
H     9.58061500    -4.06928230    -5.25670100
H    -1.21856470    -7.33115910     7.04665180
H    -2.31382290    -8.44279280     7.01487560
H     4.19904580    -4.12551720    -6.57508090
H     5.01187050    -3.17278490    -5.61554940
H     6.31140060     6.92092860    -1.35396330
H     5.88705450     5.48240540    -1.40460990
H     0.73370880    -0.67340990    -5.63876750
H     1.57290140    -1.64216200    -6.59395870
H    -0.29948580     4.06772400    -8.07427960
H    -1.56912060     3.25769020    -7.79557190
H    -6.82803690     4.70922140    -7.99459240
H    -5.93820750     3.46830560    -8.36721490
H     1.33524790     5.94895170    -4.20146820
H     2.06877180     6.49553510    -2.95724440
H    -5.16396050    -7.43525640    -4.13499190
H    -4.20994780    -6.50462480    -3.49884810
H     0.70991100     4.64071110     8.41521670
H    -0.12244740     4.92319340     7.16925590
H     2.14331690     6.64371970    -5.81640480
H     2.08202280     5.74370960    -6.99803780
H    -1.47120410    -4.72401650    -4.76527310
H    -0.89763250    -6.12072670    -4.67281810
H     2.64018610    -2.81970240    -3.58987770
H     1.66637470    -2.03104990    -4.63791240
H    -3.41393260    -7.90999140    -5.56487830
H    -4.01957950    -8.90519790    -6.53845710
H    -6.52298620    -6.51141830    -5.73917550
H    -6.23051670    -5.16163340    -6.41068230
H    -8.91914110     2.65438960    -6.37224190
H    -7.67485050     3.59444670    -6.31783970
H    -4.14343630     8.37826940     3.03702200
H    -3.44796330     8.26032720     4.43703520
H    -6.64626080     2.53264390     1.28190710
H    -5.50097450     1.55432420     1.44722330
H     8.68182210     8.26480820    -2.03397950
H     8.92928150     6.76344410    -2.09813360
H     2.62691030    -8.82945610     7.70399540
H     3.95829890    -9.41506920     7.19591040
H    -8.39070640    -3.45628080     8.76315800
H    -9.31411590    -2.91431610     9.85152110
H     6.90486780     4.31359060     4.28925010
H     6.98307220     2.82425500     3.96675820
H    -2.92709510    -0.25796000     9.37746070
H    -2.08892890     0.98090280     8.76519920
H    -6.50097230    -5.89021410     5.19870580
H    -5.03060990    -6.40560170     4.87651560
H    -3.13360750     0.77856350    -0.46847380
H    -2.13833650    -0.41026830    -0.36566130
H    -1.16462920    -1.30650490     9.48709620
H    -0.18767800    -2.31183550     8.87883840
H     9.08008110     9.37792200     6.20428080
H     7.80250190     8.96690880     7.15417060
H    -3.75071900    -2.80763050     0.94101740
H    -2.77025920    -2.84873210     2.18046260
H     1.25417730    -2.00214980    -2.27528300
H     0.39419350    -2.58894000    -1.20197770
H    -4.24407270    -0.33269530    -6.83973540
H    -2.83192550    -0.99965090    -6.41459880
H     8.44675020    -2.03340790     1.61473580
H     7.18949680    -1.19020960     1.06434010
H     5.21824850    -0.14934200     7.62474090
H     5.05655440    -1.51876780     8.25090300
H    -7.56955720     6.47900360     4.31289990
H    -8.86914920     5.74182450     3.97145980
H    -9.63720750    -1.66460390    -5.84690420
H    -9.29191610    -0.25080870    -6.48783030
H     5.71449220     4.98459350     6.08889380
H     5.41075570     6.13104680     4.96425450
H     3.97668690     8.01230590     3.81851120
H     5.36408190     8.68440350     3.97335710
H     7.08271460     3.03990370    -1.73591380
H     6.66804770     3.34492060    -0.24258660
H     8.70416200     4.90572530    -9.32840020
H     8.15533070     3.94617370    -8.17924790
H     7.76127780    -8.27569010     1.75439230
H     7.62041170    -7.18636600     2.74022810
H     7.88538760    -8.86012020    -2.64191270
H     7.23386050    -8.75750480    -1.22562970
H    -3.34887530     7.28653210    -3.48558140
H    -4.14447510     8.35409610    -2.62288500
H    -7.96077980    -8.31570020    -8.68059960
H    -8.89651400    -9.24215000    -8.12677300
H    -7.52603260     3.78125070     5.74430820
H    -7.98103420     2.35825750     5.60497090
H     3.62613740    -4.02126980     7.14550220
H     3.73598990    -3.34086900     5.74135520
H     6.45805210     3.37178590     2.14975020
H     5.32806610     3.64658130     1.27494790
H     6.33964700    -6.22164790     0.41000380
H     4.81622590    -5.70412180     0.11388710
H     4.41623770    -8.55241830    -5.47588580
H     5.25386490    -7.86373950    -4.33775550
H     7.43814000    -4.32004870    -0.98189090
H     7.33203260    -2.84639220    -0.38686620
H     3.77173810    -0.90968630     0.79953500
H     4.01060440    -2.19379390     0.08840500
H    -5.67508720     1.96790260     9.11594770
H    -7.03050850     1.29670910     8.85052520
H     3.02044360     0.06565590    -5.90539580
H     4.41521360    -0.43261740    -5.51437730
H     2.27522840    -0.15138350     6.93279570
H     2.74899890     1.13301950     6.32598830
H     7.94997270     0.84675110     5.27563170
H     9.50166580     0.79367120     5.13527570
H    -5.76075280     7.39854200    -7.76453690
H    -4.57015810     8.23407660    -7.48596400
H     1.04993970     7.68893320     3.65685930
H     1.83287520     7.58817040     4.92859420
H    -7.90438020     4.20267090     9.17923930
H    -6.63938220     3.61388120     8.67924380
H     8.83486910     0.90269600     7.55539840
H     8.33223050     0.37757020     8.96914080
H    -3.53519050    -4.13320190     9.06324720
H    -3.79188060    -4.04647630     7.55277140
H     5.88263980     9.60590150    -4.64570750
H     6.76296930     8.46042010    -5.24527090
H     6.87500760    -1.36717310     6.92346470
H     8.25361470    -0.98296050     6.17626850
H    -2.67391320     0.91714450    -7.36148860
H    -2.03231680     1.03778320    -8.72383330
H     0.12662070     2.21367450     4.06339080
H     0.88619390     1.97514750     2.78685090
H    -4.33537650    -8.41555270     3.41591730
H    -3.02885570    -7.84490020     3.90307490
H    -2.01917540     5.29151960    -6.72111330
H    -3.25806680     6.19228080    -6.50206500
H     5.40455250    -8.42676950    -8.31927260
H     3.96334740    -7.81668280    -8.24925380
H     6.90457430    -6.07595160    -3.94854130
H     5.61878670    -5.48843950    -4.44337180
H     0.90286600     2.06983650    -9.43787200
H     1.78079470     3.27224470    -9.62143820
H    -8.50584260    -6.45433420     2.73101390
H    -8.96589270    -4.93812860     2.51694810
H     4.87054860     4.72474150     8.34126670
H     4.31231620     3.87911430     7.18811500
H    -8.05319970     9.17981560     6.01277870
H    -8.80760150     8.27890960     4.99814610
H    -5.72888730    -2.20841190    -0.99029970
H    -4.59630290    -1.14828050    -0.52218990
H    -5.40197710     5.65729280     4.61289620
H    -5.32291770     7.18458380     4.80286760
H     2.33237750     5.67134000     3.69938930
H     1.64370520     4.34147160     3.50402950
H     0.18266700    -5.87540680    -0.93048450
H    -0.82863570    -6.79160160    -0.51881250
H    -4.79787440    -4.11549070     5.78191980
H    -5.49186950    -2.91448760     6.38973420
H    -1.88973580     7.81822310     9.11258120
H    -0.58531710     7.85199680     9.76219280
H     8.59352800     1.99928570    -3.18439890
H     7.27755010     2.28153430    -3.91458380
H     8.73043960    -6.19282200     0.26421860
H     8.38624560    -6.74233930    -1.11413260
H     1.29700050    -0.02803700     2.05637420
H     1.08718220    -0.26689900     3.53036250
H     5.71036610    -4.59601060     2.02937330
H     5.68110730    -3.09885600     2.38615960
H    -5.86061880     1.14148390    -4.17003820
H    -5.17358000     2.42488780    -4.67281370
H     8.52590020     7.59013340     4.56295510
H     7.65923610     6.54621370     5.26372270
H    -6.71899530     6.20833010    -3.19510270
H    -6.74724950     5.13020440    -2.08278270
H     3.53368670    -0.76761630     4.19142050
H     4.13964800    -0.96024120     5.48856690
H    -8.68588000    -6.06013900     5.62548050
H    -8.58422720    -4.72773950     4.85864390
H    -4.66565180    -9.22183500     7.32714900
H    -4.27818050    -8.29733740     6.08963610
H    -6.83243150    -1.08564060    -6.74763770
H    -5.82678340    -1.17953680    -5.62279710
H     7.31261460     1.40291480    -7.79904020
H     7.31693450     2.31110430    -6.54242640
H    -4.35556150     3.92245330    -9.58286880
H    -3.63430690     2.53333920    -9.38980490
H     0.67222620    -5.20010930     8.47127150
H     1.70353620    -5.65541030     9.47399140
H    -5.78376900     8.64452210    -3.80860460
H    -7.11051460     8.45608580    -4.67206600
H    -4.61989940    -1.83761880     9.80160050
H    -4.76409160    -1.15587630     8.47392620
H     1.38957400    -4.75854870    -4.29128610
H     1.85121650    -6.27034670    -4.08589420
H     5.43842710     2.31755090     8.41396560
H     6.66260460     1.49667730     8.08214100
H     0.22673590    -6.24677550    -8.90931930
H    -0.83460620    -7.10707620    -9.38621580
H    -6.13675460     6.52796840     6.97757900
H    -6.45125210     5.96625310     8.35745390
H     6.60999000    -9.45316920     5.12395470
H     5.75386190    -8.80424290     3.98085190
H    -2.09729320     6.64539150     6.64043020
H    -1.42087450     7.79873200     7.04154220
H     3.72638490     1.31477430     1.49389320
H     3.42621940     1.33499080    -0.06574830
H    -7.14853750     0.44462360    -0.65243380
H    -8.15522630    -0.59627280    -1.22808290
H    -8.94541120     2.48370200    -4.38950550
H    -8.76191930     1.73637620    -3.12520740
H     6.50658780    -0.51828780    -9.41322420
H     7.86123730    -0.92650430    -8.85169700
H     4.82815830     7.05892630    -6.95764740
H     5.82545610     6.29771620    -6.21016460
H     0.92323940    -0.10819780     9.02975230
H     2.11050770    -1.17727390     8.97624680
H    -1.85674820    -2.29926850    -3.65775190
H    -0.38536210    -2.78861060    -3.61863580
H    -0.21010520     2.05685200     6.47783210
H     0.69127760     0.96304940     5.82859910
H    -6.89994440    -5.69282150     8.27063910
H    -7.83177550    -5.13002120     7.17089400
H    -9.16122270    -1.69591950     0.65651630
H    -8.09065950    -1.65318380     1.80539380
H    -9.64582820     6.37975260     0.89155310
H    -8.97484100     6.89988130     2.16526280
H    -0.89565250     3.98903390     3.04717730
H    -1.38088940     5.43342070     2.85943940
H    -3.23215530    -8.32672220    -8.54527030
H    -3.87307670    -7.57080600    -9.63764080
H    -3.98438280     5.74783630    -1.87832910
H    -4.49649600     4.26648250    -1.74276680
H    -0.69680640     6.75846430     1.15552430
H    -2.17594800     6.92854510     0.98267670
H    -7.70514240     7.27716490    -1.21138920
H    -8.47705650     7.81383130     0.02173900
H    -5.37454180     6.53025070    -4.55644050
H    -5.60868360     5.15460100    -5.06323930
H    -8.50523380    -9.04748850     0.82221950
H    -7.40529380    -9.63789930    -0.10725040
H    -4.27894190     1.03586220     3.49546310
H    -3.37728420     1.33746340     2.22759420
H    -4.85862160    -7.77768980     1.34608340
H    -6.16693890    -8.53557160     1.66508030
H    -4.88514170    -7.43131920     8.08798480
H    -4.44045200    -5.98443190     8.30811420
H     7.97405470    -2.51931210    -2.36639290
H     8.48715480    -1.20144200    -2.89330260
H     0.58432280    -2.33732340    -8.73989790
H     1.53214430    -3.43904850    -8.00354240
H    -1.51298870     4.71536100     5.21635940
H    -2.62058450     4.28248910     5.95715290
H    -9.06911810     8.27969980    -4.31524590
H    -9.35211360     7.03893710    -5.22958930
H    -1.53286860    -8.75211220    -6.77411060
H    -0.28451070    -8.27536200    -7.67356820
H     0.08811210    -3.48688010     6.80810080
H     1.36169700    -2.67386610     7.06884160
H     2.75207640    -5.60408310    -7.61579700
H     2.18138930    -5.25131090    -6.24868120
H    -1.62712390     3.37351370     8.58753920
H    -0.36795070     2.53178480     8.73155600
H    -5.84772300    -8.98999390    -8.02830290
H    -6.21271580    -9.59814180    -6.66291620
H    -6.56240950    -6.62711330    -8.04277550
H    -6.04489260    -6.83131380    -9.56719190
H    -1.05600350     7.48604020     3.17453350
H    -0.96272290     7.77655680     4.73746110
H     3.27770520    -4.55957780     3.36712560
H     3.22219270    -5.30806300     4.61446810
H    -6.20374640    -2.86178520     2.18011930
H    -6.01719600    -1.36257900     1.74482260
H     2.24982770    -2.46657990     1.69939910
H     1.09451540    -2.67454510     2.80173150
H    -1.40370930     7.48198030    -2.17920540
H    -0.50922490     6.98043850    -1.04763880
H     3.17196130    -8.40033110    -3.44500810
H     1.73077600    -8.54938980    -3.03325260
H     8.69744750     8.24524320    -8.83488940
H     7.34129290     7.70200750    -8.13496550
H    -4.16358110    -2.54691100    -3.99253690
H    -4.29059880    -3.89951350    -4.82548190
H    -0.53032310    -9.21700300    -1.93609170
H    -0.49237510    -7.97461670    -2.64907470
H    -2.91490380    -4.54613320    -2.54596950
H    -2.05133690    -5.78226260    -1.95931520
H     3.73972420     5.29627540     1.77580850
H     4.56839290     5.77815070     0.54016930
H    -0.53021350     1.33050040    -4.87748660
H    -1.18885350     1.15504500    -6.22420970
H     6.55660510    -5.44151990     9.17469650
H     6.14325490    -6.76189360     8.51370740
H    -5.74879890    -3.53149750    -2.66539730
H    -6.75862560    -4.42542620    -1.93532030
H    -0.27590930    -3.94193010     0.75166580
H    -1.52693650    -3.49855200     0.17141870
H     0.27523060    -1.69604660     5.14623360
H    -0.84319660    -1.82112790     4.17048600
H     3.71097830     1.74097800    -5.15096160
H     2.93459220     2.98204090    -4.87508540
H     7.87721540    -7.22026160    -8.60482770
H     8.92878580    -6.24702060    -9.21578680
H     5.51569660     2.93390360    -5.15194650
H     6.49659120     4.13546090    -4.90058860
H    -3.45983070    -0.41834820    -4.16347410
H    -3.08614220    -0.54623980    -2.72370750
H    -2.18096030     2.83162990     0.79085360
H    -1.26511860     1.59973080     0.91664370
H     6.46905480     1.12256990     0.79864790
H     7.94998580     0.87180370     0.41160960
H     1.27023240    -5.95598030     1.69456650
H     1.65384160    -4.52148340     1.31464510
H    -3.15427190    -2.77787860     4.73914510
H    -2.94854510    -1.37270980     4.30096000
H     0.65425910     0.84505960    -7.61773630
H     1.75739280    -0.03815460    -8.35949950
H    -4.78758660     5.19129280     1.99939060
H    -4.83683590     5.14155040     0.44132400
H    -3.43231670     0.22203440     6.03688320
H    -2.06986840     0.64375180     5.45342700
H    -9.57279850     4.19349080    -2.91611810
H    -8.70034210     5.39317220    -2.66674210
H    -7.11371690    -0.13727450    -3.34522520
H    -7.82707560    -0.59320740    -4.68898490
H    -3.30662240     1.81341870    -3.72783930
H    -2.75216500     2.89928400    -2.99018620
H     5.42036350    -1.12629410    -3.66809350
H     4.94734120    -2.47620150    -3.50892160
H     2.14470960     3.71568500     6.71435720
H     2.69818730     3.43127090     5.23719790
H    -3.84767920     4.19345580    -5.73163980
H    -5.10991610     3.59457240    -6.54643850
H     9.45459140    -2.44303160    -7.61118660
H     8.41976220    -3.34851610    -8.35018680
H     1.20248690     6.69412170    -8.87792300
H     2.61546430     6.46039110    -9.67821500
H     4.14059770    -6.92545360     3.55824070
H     4.57219140    -7.31750070     2.15385500
H    -5.57009230     2.37391670    -2.46641220
H    -5.85526120     2.57985670    -0.94007250
H     3.00958360     1.25198250     3.37229660
H     3.71900440     2.61484360     3.31904790
H     6.38006440    -0.16114550    -1.13600640
H     6.37088500     0.37234250    -2.53603110
H     1.09231790     4.98825790    -1.74175550
H     1.97557270     3.84549570    -1.30481620
H     4.80390420    -1.78790640    -8.76851210
H     5.65873800    -3.12181710    -9.06037340
H     3.77092540    -2.97033620     9.22118590
H     2.39274650    -3.66399360     9.05857110
H    -8.28203330    -0.73486120     9.35650260
H    -9.16430400     0.54011260     9.29623080
H     6.46231050     7.11371790     0.83888880
H     5.55486520     7.77408970     1.89868110
H    -3.44716640    -9.10183460    -2.73977650
H    -3.12157910    -9.42335240    -1.31954450
H     4.12855720     1.19673420    -8.87694700
H     4.41881600     0.75193570    -7.54041150
H     1.06900690     3.97523160    -6.27716530
H     0.70782100     2.56424950    -6.14419420
H    -3.90955560    -5.76122730    -0.43020870
H    -4.81878560    -5.47259240     0.84690430
H    -8.55822090    -8.74485680     8.95023120
H    -8.91228890    -8.36622780     7.50507530
H     7.88777690    -3.06992540     7.65167760
H     9.00343470    -2.86950730     8.65007770
H     3.31081730    -6.51309640    -1.52185780
H     2.77902590    -5.78432470    -0.20953560
H    -5.50066820     0.49274680     7.47754400
H    -5.69054540    -0.33014260     6.19418140
H    -2.34639850    -3.07486700    -9.42265350
H    -2.93062310    -4.28000360    -8.72133300
H    -1.41359600     8.83192410    -0.70901980
H    -1.36755840     9.86446230     0.49755990
H     4.87377730     5.88000880    -9.31928560
H     6.14727770     4.92258510    -9.19557940
H    -4.45264170     3.39956660     3.47615330
H    -3.31421180     4.38998790     3.59651240
H    -7.15560500    -6.80006380    -0.69979080
H    -8.11991130    -5.59169870    -0.26961770
H    -4.73304930     9.06144050     1.04035670
H    -4.77726160     7.49258830     1.17316690
H    -0.53792740    -1.00033220     1.02408940
H     0.34403970    -0.30676640     0.01919630
H    -9.19499880     3.48368680     4.41750250
H   -10.48623900     3.94085520     3.66328630
H     3.33584130     8.69833850    -7.23551470
H     3.75913800     9.89664790    -7.91783880
H     4.84895450     7.72879320     9.11034340
H     3.82274230     8.32785330    10.15621540
H    -9.52697960    -2.50551740     3.32341670
H   -10.50937590    -3.39653120     4.14652710
H    -8.95224380    10.73029010    -2.45849650
H    -8.59906750     9.22190700    -2.10629770
H    -8.78045810     8.81616070    -9.73806140
H    -9.57339570     7.85880080   -10.63299420
H     6.37215180   -10.07309730     0.61336490
H     5.25064150    -9.32278420    -0.16556610
H     0.43228780     9.87272430    -5.80935320
H     0.38041390     9.72942320    -4.25764440
H    -8.67602790    -9.08187490    -5.90183110
H    -9.09615780   -10.41637760    -6.25014760
H     9.04316590    -5.11940450     8.72833000
H   10.491689280    -5.89764180     8.86158760
H    -9.96461670    -6.11289490    -7.29880460
H    -8.62726800    -6.14199270    -6.49138250
H     9.23372590     5.42383460    -6.86757480
H    10.29000630     4.79644470    -5.98095460
H   -10.11430300     2.99129110     8.69074580
H    -9.73982000     4.38748900     8.38675520
H    -1.69005030     4.63774610    10.36632010
H    -1.10752580     5.52181770     9.28686780
H    -8.37304090    -9.29866450     3.61985550
H    -9.80565090    -9.09372800     3.21032900
H     7.36224380    -8.60655840    -9.94295020
H     7.24069580    -9.72733520    -8.85800410
H    -6.67782760    10.04680850     7.99546700
H    -5.98684120     8.64904070     8.11750670
H    -9.92805110    -7.16214970    -3.06193720
H    -8.94105550    -6.63256120    -1.95413190
H    -9.00724890     1.09222140    -8.38619000
H   -10.23746090     1.44559690    -7.40349660
H     4.20545050    -6.13228740     9.76097930
H     3.20355850    -7.22857830     9.31484520
H     1.90577670    -9.71205110     1.80586680
H     0.78387820    -9.42370440     0.72445490
H    -3.95464210     8.10887710    -9.39585700
H    -3.53900520     9.27970190   -10.24673280
H    10.26889260     1.43701870     0.10095080
H     9.72085460     2.74240440     0.60334130
H    10.05329870    -7.83228940     5.14095290
H     8.85979750    -7.07640900     5.68356330
H     2.21079120   -10.07031330     3.82183650
H     3.09100090    -8.79257140     3.33547870
H    -4.55285990     6.07171830    10.36782080
H    -3.30279900     5.61804860     9.62970730
H    -1.45158090    -9.36920240     3.00658970
H    -2.46379220   -10.35815900     2.30182520
H     0.56108030    -9.94038130     8.92445520
H    -0.15911140    -9.04176810     7.94035600
H    -8.43383660     6.55124350     7.55201620
H    -9.86882700     6.49053460     6.76890410
O     4.83213830    -6.57011400     5.98478610
O     3.55533010     7.72568210    -2.40344780
O    -7.03865840    -2.08371730     5.31753080
O    -7.47583950     3.85045050     2.01708860
O    -8.91543590    -2.25200920    -1.27213620
O    -0.09797360     0.96333020    -2.68148500
O     9.48948000     4.52535320     0.11733250
O     1.87265950     7.51073050     6.61110180
O     3.27554290     3.15839770    -9.05697170
O    -7.13488130    -7.85798120    -4.53964360
O    -1.42427720     4.46709690     0.23165360
O     7.14512720    -6.64536030     4.71705820
O     6.63316450    -4.32718020    -8.25821000
O    -1.54809680    -6.87700080     1.09469600
O     7.81982050    -7.76851420     8.14459660
O    -7.59200180     0.76681860     5.35758030
O     0.08781350    -5.74825570     4.14327030
O    -0.40024660    -8.64607280     4.42826870
O    -5.07258510    -3.75482130    -6.64173700
O     4.36943390     8.65211200     6.82240990
O     0.94539910     6.62871860     0.45957340
O     3.04210280     7.96925190    -5.21447200
O    -9.20844040     0.50447160     3.20480810
O    -1.51139800    -2.16757640    -6.81521820
O     8.72365960     9.00029180     2.90225860
O    -2.30320620    -5.56436950    -7.81472610
O     7.54236170    -3.79054260     4.48008390
O    -7.44919860     6.56825180    -7.72151090
O     6.75876220     7.30889230     8.36248680
O     6.03924980     0.82961570     4.51349250
O    -0.89988930    -5.23864450     6.93607060
O     8.62132450    -7.67203260    -4.54027700
O     0.49969430     8.62796490    -8.68542310
O     4.58792680    -3.33814130    -2.23673380
O     3.42781450    -9.54662790    -0.86484980
O     7.00461150     5.94031730    -4.16122750
O    -1.74878280     7.53926360    -4.35798150
O    -5.91383280    -4.58201070     2.27059850
O     2.84172040     2.19085180    -1.71358530
O     8.97314740    -3.39795110    -5.48560570
O    -1.37774070    -8.25797050     7.01086820
O     5.02826570    -3.98538790    -6.15061850
O     5.53473230     6.38529100    -1.21812700
O     1.62245110    -1.06603730    -5.86808470
O    -1.16401470     4.16527910    -7.72950370
O    -6.39588950     3.91163390    -7.67117090
O     1.22701020     6.15370640    -3.25708560
O    -4.23510950    -7.33069410    -3.93451030
O     0.82280960     4.88035290     7.44603910
O     1.92360380     5.73108850    -6.03004210
O    -1.56759240    -5.60226060    -5.06272210
O     1.74980390    -2.84868870    -4.00305780
O    -3.29154980    -8.26556160    -6.42845770
O    -6.62204190    -6.05615150    -6.57622860
O    -8.40848570     3.22816510    -5.80474350
O    -4.27219720     8.44948970     3.97226880
O    -6.16654730     1.78507210     0.81183500
O     8.24295090     7.42571570    -2.06128990
O     3.56291180    -8.59657730     7.59778970
O    -8.77118140    -2.59835000     9.10562340
O     7.39676480     3.68330620     3.72958840
O    -2.08121350     0.17811020     9.36055080
O    -5.60069130    -5.63887910     4.89920070
O    -2.94590210    -0.15138570    -0.78304180
O    -0.74350850    -2.18369350     9.65620540
O     8.07552940     9.47322710     6.34456840
O    -2.83496900    -2.89697330     1.21081280
O     0.68964620    -1.73894630    -1.57370390
O    -3.45043020    -0.19773350    -6.28347920
O     7.59436410    -2.07314390     1.23783120
O     5.16465670    -1.09823410     7.37813480
O    -8.47972830     6.62216350     4.02236080
O    -8.94032630    -1.05055240    -6.04799190
O     6.09811760     5.50210140     5.35541480
O     4.93714980     7.82921950     3.68269900
O     6.84609160     3.75833350    -1.10556210
O     8.15668640     4.84591730    -8.55170530
O     8.14078830    -7.40173780     1.96517120
O     7.77531930    -8.27128550    -1.89481880
O    -4.19965310     7.48336140    -2.98319590
O    -8.54625010    -8.96739180    -8.98254310
O    -8.27463870     3.25478180     5.71388150
O     3.56385940    -4.16760110     6.18775030
O     5.97279560     2.94839640     1.42139760
O     5.53751180    -5.90515820     0.78168080
O     4.71899160    -8.65551450    -4.56645390
O     7.09057490    -3.40314930    -1.09336000
O     3.68009300    -1.85298170     0.93923620
O    -6.29411260     1.76366990     8.45051860
O     3.96628900     0.24170760    -6.03396080
O     2.37120460     0.25409120     6.08223780
O     8.76086210     0.66959170     5.74823420
O    -4.75240280     7.35733020    -7.74926340
O     2.01512140     7.71896040     3.94208840
O    -7.03608620     4.46530110     8.85352120
O     8.98238530     0.93752980     8.52298180
O    -3.31879040    -4.57881800     8.17992700
O     6.80004840     9.18622220    -4.67203210
O     7.63204500    -1.69943160     6.36141170
O    -2.15372030     1.56845630    -7.90226040
O     0.29125670     2.58103640     3.19895190
O    -3.91381220    -7.95205780     4.18395130
O    -2.73079750     5.51403000    -6.06090530
O     4.59909870    -8.37027310    -7.78022060
O     5.92292570    -6.12909230    -3.81410310
O     0.86923790     3.00260430    -9.79922220
O    -8.41167690    -5.63791970     2.17915280
O     5.12185620     4.28294490     7.56360170
O    -8.91810080     9.07474580     5.56563730
O    -5.23502160    -1.81006670    -0.22044550
O    -5.75774870     6.34942530     5.19019720
O     2.52540970     4.73126430     3.63320440
O    -0.32238830    -6.62016250    -1.30840360
O    -4.60656110    -3.33212110     6.30712020
O    -0.98538140     7.46200100     8.97796000
O     7.62003910     1.96359290    -3.07366810
O     8.31286450    -5.94816190    -0.56638270
O     1.53066530     0.24909570     2.91355940
O     5.56503960    -4.02802840     2.77149190
O    -5.11121130     1.70680110    -3.98886610
O     8.57552930     6.75724110     5.05632210
O    -7.11233780     5.99090570    -2.35935120
O     4.30085890    -1.17407960     4.54891950
O    -8.19189980    -5.23243070     5.55157760
O    -4.14274410    -8.45173840     7.04163700
O    -5.90091130    -1.27199010    -6.60989940
O     7.84761050     2.02703780    -7.29283380
O    -4.49186480     2.95831220    -9.39901600
O     0.98413750    -4.97571680     9.35560230
O    -6.42181220     9.11059420    -4.41818590
O    -4.54978130    -1.02075360     9.37440290
O     1.60957500    -5.60845460    -4.77513600
O     5.76005990     1.38726130     8.36683650
O    -0.01968530    -7.21127090    -8.84910650
O    -6.58794880     6.76745240     7.81656270
O     6.32051270    -9.62614940     4.20505440
O    -1.93921210     7.54061190     6.29483210
O     3.66769040     0.81884520     0.70962640
O    -7.77673420     0.30710200    -1.38478510
O    -9.39943350     2.20732910    -3.60099140
O     7.42530710    -0.19429070    -9.31256890
O     5.75323350     7.05918680    -6.72574580
O     1.77197970    -0.30856400     8.66106980
O    -1.22601440    -2.97454680    -4.06804090
O    -0.04448940     1.52855310     5.66024600
O    -7.68116690    -5.16224870     8.13638740
O    -9.02596890    -1.50903810     1.59495880
O    -9.43338980     7.21163950     1.32992380
O    -1.44201550     4.63610280     3.45653610
O    -2.99057010    -7.91618280    -9.42232040
O    -3.74995620     4.89799070    -1.52385510
O    -1.46600210     7.01096530     1.62562180
O    -7.85377880     8.03538760    -0.67428310
O    -6.05000580     6.00286520    -4.98822800
O    -7.77291380    -8.82385200     0.26199570
O    -4.29289060     1.42404640     2.63686440
O    -5.18286540    -8.55848050     1.83644980
O    -5.08359400    -6.65068350     8.64745260
O     8.64058620    -2.13276300    -2.93374090
O     1.34893260    -2.48514760    -8.15688240
O    -1.76321530     4.61875160     6.14362490
O    -8.78176460     7.86697250    -5.13420620
O    -0.60703790    -8.96897450    -7.03491420
O     0.38198370    -2.59619480     7.06181210
O     2.51443370    -4.89181870    -7.07594130
O    -1.20696130     2.54274230     8.27317510
O    -5.65590310    -9.75083900    -7.37533830
O    -6.41204600    -7.25061320    -8.79087410
O    -0.59664320     7.94913840     3.89150040
O     2.85366120    -5.35076490     3.77188220
O    -6.48481660    -1.95101620     2.31788530
O     1.45772330    -2.93647320     1.94748290
O    -1.40917610     7.24954140    -1.21362790
O     2.48141440    -7.99629620    -2.89411630
O     7.73817440     8.17018890    -8.93874220
O    -4.47123870    -3.47977190    -3.94243710
O    -0.27919800    -8.88845750    -2.81043160
O    -2.94293390    -5.34516120    -1.97050710
O     4.45034290     5.11923510     1.21725980
O    -0.29913490     1.08301450    -5.79242430
O     5.78787970    -5.92966790     8.86562870
O    -6.40238000    -3.56934230    -2.02315330
O    -0.59851330    -3.72994430    -0.13909250
O     0.12823680    -1.65806990     4.24995450
O     3.79193830     2.57740400    -4.61196240
O     8.26567030    -6.32625830    -8.43460290
O     6.43986290     3.20371440    -5.18369030
O    -3.21418040    -1.07676870    -3.51732880
O    -2.18404820     1.90383200     1.02554620
O     7.05642750     0.43963380     0.44756370
O     1.51764790    -5.39416360     0.90631010
O    -2.64443860    -2.23694630     4.06598450
O     1.00422690     0.57998390    -8.45395380
O    -4.91501010     5.70414090     1.23621360
O    -2.97786350     0.33356860     5.18673040
O    -9.57973150     5.08227000    -2.69146300
O    -7.03039710    -0.20978820    -4.30293110
O    -2.44626880     2.15000580    -3.49214630
O     5.01063980    -1.79270430    -4.20517450
O     2.88329580     3.30908930     6.20084280
O    -4.66585740     3.66774360    -5.66053510
O     9.01496410    -2.55866800    -8.49869720
O     1.80495460     6.02710180    -9.24765180
O     4.50582480    -7.66909520     3.04382260
O    -5.77743800     3.02734700    -1.82652640
O     3.89029520     1.69259870     3.29966630
O     6.38085400    -0.44234660    -2.05902160
O     1.38426360     4.52106530    -0.94279660
O     5.16489160    -2.33877100    -9.45979310
O     3.08613060    -3.17112290     8.63112930
O    -8.24685100     0.25842340     9.51301690
O     6.12630450     7.98549600     1.15163590
O    -3.69974990    -9.75367520    -2.08247760
O     4.56446680     0.47060210    -8.42407340
O     1.46280030     3.07747670    -6.36584190
O    -4.26204520    -6.18240580     0.39098900
O    -8.18771880    -8.69291020     8.01550140
O     8.33561910    -3.52411140     8.35073910
O     3.45127650    -5.72513920    -0.95444390
O    -5.07939120    -0.22751410     6.93934210
O    -3.17326380    -3.40900650    -9.11172750
O    -1.35318740     9.72305730    -0.46173380
O     5.23335460     4.99703040    -9.50456880
O    -4.23781500     4.31807060     3.53070340
O    -7.52959880    -5.92397720    -0.98286390
O    -4.27334510     8.27222870     1.39811490
O    -0.17997210    -0.14200740     0.77850940
O    -9.50831350     3.89792260     3.56941720
O     3.14382630     9.17833370    -8.03748850
O     4.08010310     7.46640430     9.69485750
O    -9.58425220    -3.20136670     4.00360170
O    -9.21446570     9.74671220    -2.67145290
O    -9.38644400     8.04422120    -9.71239310
O     6.15015290    -9.23418440     0.25388750
O     0.62174080     9.26047600    -5.04646670
O    -9.02628580    -9.52841210    -6.59792390
O     9.53708430    -5.92449680     9.08974440
O    -9.59515570    -6.05954150    -6.39633560
O     9.65002840     5.45972580    -5.96898610
O    -9.73197620     3.75436200     9.14571550
O    -1.83259370     4.88381470     9.45268320
O    -9.01027410    -8.63366200     3.40607950
O     6.99977820    -8.75500970    -9.03525990
O    -5.82291320     9.57441110     7.83700980
O    -9.02565750    -7.22093170    -2.72280090
O    -9.26342140     1.23048660    -7.47203570
O     3.31676340    -6.56000400    10.04467130
O     1.43026690   -10.09776660     1.02359410
O    -3.14911910     8.55765230    -9.66894900
O     9.56522000     1.78524490     0.61130170
O     9.85689970    -7.24751400     5.85087400
O     2.21235520    -9.13893630     3.50588030
O    -4.24984530     5.51784660     9.61613300
O    -2.06198590    -9.47617830     2.23142810
O     0.62649410    -9.65445890     7.99793440
O    -9.37334660     6.22719340     7.56737100
