384
0.0 15.6593 15.6593 15.6593 
H     4.13006643    12.86436718    10.81857892
H     4.46760903    13.51418172    12.07794851
H    12.96327574    14.59791725    13.48202705
H    11.55422197    14.38384157    13.87986845
H    11.36712209    11.86125633    14.84671054
H    11.93285160    13.09274631    15.55357089
H     9.73769687    16.70139973    10.36082232
H    10.88841359    17.24356434     9.41317350
H     1.82817284     8.21967004     5.87630555
H     2.40372418     6.77947602     5.68308809
H    -0.25436319    10.76244183    10.53215832
H     0.46140729    12.08351395    10.74724462
H    13.35773784    19.09612456     5.01225974
H    13.27313139    20.17612708     5.98359548
H     7.26858827    13.08774534    -2.41188978
H     6.17467799    12.52118256    -3.22811735
H    16.50751306     1.75772855    -0.66984851
H    16.12265148     1.28488870     0.68174845
H     3.03611459    12.02460613     8.71223699
H     2.36207944    11.39499881     9.83934261
H    10.90967582    16.09685608    16.35036509
H    10.02398563    17.00128607    15.34031970
H     8.23154225    10.76327420    11.03371253
H     8.46719547    11.19719503    12.46140490
H    10.23355250    -0.97813914     7.34769243
H    11.29269305     0.12961633     7.03742619
H    13.99389486     7.29205121     9.27604790
H    13.48683570     8.35916986     8.39425134
H     6.91454102     8.18845816     6.86408575
H     7.81698830     6.92367213     6.96304446
H    10.83189235    -4.03707996     6.86782778
H    11.18691703    -2.56270390     6.57870092
H    15.42181264     8.56734557    14.75769283
H    15.97611906     9.15287892    15.90442984
H    -1.01104566    12.47126586     6.02933778
H    -2.49272562    12.31829870     5.78890362
H     6.67019953     7.84219970    10.28750474
H     6.85380447     7.00914575     9.07998071
H     7.89280506     4.77022641     1.51797755
H     6.59980502     5.48930649     1.25913411
H     6.11747095    15.32618375     9.42247471
H     5.98914664    14.76694732    10.79447173
H     0.22456342    14.19079282    11.25756161
H    -0.00217593    14.45818717    12.75644249
H    15.92881603     4.60564507     2.18866505
H    15.76291665     4.67533528     3.66172746
H    -0.61317603     9.16824090    12.27006511
H     0.75662009     8.71077712    12.31507872
H     9.11021312    12.88041145     9.90934523
H     8.66904462    13.45192371     8.75184585
H     6.22655129     9.13998666    14.88470849
H     6.32708083    10.08600388    13.75010505
H    -0.89616800    11.90401556    19.62564563
H    -1.48052327    11.24578602    18.42783083
H     6.41769425     4.30619364     7.04133870
H     6.41781567     5.36301931     5.88412192
H     3.15985310     3.55064424    10.55427283
H     2.92118570     2.43109321     9.56790075
H     5.42337814     1.09334280    12.18632661
H     4.80716877     1.50038103    13.49740010
H     1.58064675     1.61771492     7.55392967
H     2.81839492     1.94962685     6.70571364
H     5.31790409    15.34498515     6.19967402
H     6.19004980    14.84911756     5.15315583
H    11.33077000     6.70652538     7.46557361
H    11.97360983     6.90066148     8.84605249
H    12.69220109     7.44857795    12.85363556
H    12.84558652     5.88140367    12.87158106
H     8.54734483     0.82738145     1.52747763
H     8.34277207    -0.53592232     2.10627680
H    10.03974640    -2.06173207     2.82745443
H    11.42467769    -2.58323646     2.60098146
H    -0.12613138    -0.59052309     2.90420032
H    -1.43770754    -0.41048888     3.45682722
H    15.60803622     6.47873680    12.98281228
H    14.79040848     5.26073615    12.37393636
H     5.59105724    -6.07243190     9.47900570
H     4.57565647    -5.07611267     8.97825363
H    13.30869694    10.65306241    -1.33779519
H    14.34494408    10.96900284    -2.41894778
H    17.18338145    17.17100413     4.21971447
H    16.19735804    16.97931151     5.29417930
H     2.15414036    13.21246918    22.31254209
H     2.81714556    12.13556907    21.40370739
H    10.72533913     9.48788609     7.49012920
H    12.06657430     9.38175340     6.67377736
H     9.53074732     4.63208127     2.70655736
H     8.32990557     4.19782752     3.44170873
H    11.67608736     9.69443920    15.08787185
H    10.94961277     9.76035117    13.82674060
H     6.66899662     2.10842233     7.84109815
H     8.05667790     2.56491437     7.71858097
H     2.85262950     8.46348384     0.43723859
H     2.33155300     8.23086278     1.84991598
H     8.49679681    -5.42869381     7.23592749
H     9.02820571    -4.59687299     8.32548776
H    18.83002659    12.54062447     3.68569422
H    17.89101324    11.37757689     3.42036414
H    15.13716225    12.30618520    -0.39848302
H    15.13910707    12.34989627     1.09817471
H     7.88177248     2.66526316    -4.62818236
H     7.62579803     1.16655459    -4.99928670
H     4.81820781    13.11900150    17.35850551
H     3.61806689    13.95909761    17.85041359
H     9.10226714     6.68937199     0.34776714
H    10.53631597     6.20820643     0.15587356
H    10.72783564    14.14273073    11.75743300
H    10.57027696    14.64445544    10.36741820
H    11.44871223     4.65185987     9.13918377
H    10.43989136     3.74689732     8.81133438
H     4.13193842    15.84329391     7.87509109
H     4.42997783    14.32377446     8.09449884
H    13.02677300    14.23716533     8.13248707
H    13.39742099    15.42862281     9.02146016
H     8.82753905     4.50890945     7.46807072
H     8.12843222     4.64767051     8.58853656
H     5.36260377     9.80790614    -4.07871364
H     6.55357550     9.13105708    -3.66162615
H    -4.81171350    11.97527862    10.59781125
H    -4.92800334    10.62574114    11.28843102
H     5.20134947     4.77872242     8.85740850
H     6.11385967     3.85721136     9.67320681
H     7.02189965    15.41226364    -2.11134669
H     8.43107478    15.37474672    -1.56796818
H     8.12217222    -1.23972907     6.77927749
H     8.19657525    -0.09510337     7.75638809
H     6.75587278     4.16947875    12.26534527
H     7.08067447     5.23703483    11.22937413
H     9.88792641     3.26709470     5.16804679
H    10.71037996     3.54239981     4.09027376
H    -0.73149125    17.52879376     7.85611529
H    -0.85018147    18.38351487     6.61044850
H     3.33711271    18.63692784    19.38280948
H     1.89507831    18.76368050    18.87421802
H    13.97005180     7.41424007     3.32300943
H    14.04644033     7.28120010     1.82313891
H    14.92814850    12.74366017     8.04125735
H    15.46731889    11.42990855     8.50978089
H    17.73982502     6.36781137     0.87797441
H    16.35957628     6.51255452     0.24412050
H    13.20543950    15.14779660    16.80388164
H    11.82126247    14.65086446    17.32998117
H    12.82892282     5.55477938     3.20292410
H    12.44173083     4.21670889     2.67340186
H     4.44023888    11.00471546    15.50090986
H     5.22510969    12.13643912    14.93947472
H     8.89926315     1.26401688    12.88565512
H     9.26005919     2.49162806    13.63865760
H    11.81017179     5.60468621    -1.07070597
H    12.55119181     4.81160560    -0.08237843
H     2.51665814     6.48114236     8.53556612
H     2.25754058     5.16070608     9.29989229
H     9.60533156     6.75841936     5.31461771
H     8.95030077     5.44425090     5.12373267
H     2.28353500    10.61840775     7.05491575
H     2.07723733     9.32168194     7.80198642
H    -7.51153699    12.81465680    17.70450021
H    -7.69283417    11.85492251    19.01693357
H     8.31796746     9.76979257     4.85659385
H     9.36925370     9.22518892     3.87578918
H     4.81733344     1.89989886     5.52641737
H     5.39290638     3.27822815     5.60247173
H    12.48351085     8.79420237    17.19180642
H    11.17550810     8.30700779    16.51627085
H     5.18430871     6.65522166     4.06818265
H     5.08073909     7.91866698     4.88608613
H    -1.10849887    16.10491920    14.29081976
H    -0.75304905    14.79896672    14.95659534
H     6.92078734    20.00563700    14.87549020
H     6.86661257    21.09529825    14.07828447
H     6.18933577     0.00891564     1.36534602
H     4.75087396     0.35908706     0.85354664
H     1.94772444    11.99403580    13.99883737
H     1.44448678    12.73076272    12.84114392
H     2.85685096     0.16546641    11.66176728
H     2.90731343    -0.03397432    10.23620117
H     8.04757915     1.84628690     3.81605181
H     7.61938239     2.51214580     5.01017897
H    12.14785252    10.73613128    17.13267935
H    12.32517320    11.28223327    18.57709734
H    14.05964645    -5.26099096     5.46839957
H    14.07224825    -5.06255556     6.94086858
H     5.95736954    -5.44778672     5.66020981
H     6.17029454    -5.13219905     7.09865551
H    11.59777712     1.47925276    -4.46705810
H    12.14862643     1.04181378    -3.08601560
H     4.98387104     9.82881232     3.61187215
H     3.76827622    10.28171744     4.39807976
H     0.78297250     9.79106205     3.39774372
H     1.61623809     8.56748547     3.72137964
H     3.13997144    10.80571171    12.83356680
H     3.77439929     9.49285863    13.01835017
H    17.19194260    13.58191885    15.91348366
H    17.40365818    15.02855373    15.47436525
H     1.11621168    14.85203689     8.34762028
H    -0.17373797    14.90535249     9.07796923
H     9.70121933     6.95685694     2.91229390
H    10.97573903     7.65247236     3.34753486
H     4.72391367     7.12686341     1.33446687
H     5.76113847     8.08318765     1.71155152
H    11.26646989     2.20734897     6.27080757
H    12.44833196     2.10921960     7.06206792
H     7.49751590    -2.56054827     4.59776863
H     7.31990843    -3.40817666     5.80807129
H     4.53773283     7.22604218     7.08138771
H     4.18257384     8.16926516     8.14692799
H    20.37049670     7.09366642    11.59360563
H    19.43255663     6.14361284    12.48461958
H    -2.68501715    10.59375512    11.07858948
H    -1.88222212     9.38749466    10.65919875
H    15.10651685     2.64206730     2.24455511
H    14.99098197     1.16620708     2.30951190
H     3.86000300    18.16122375    14.68853163
H     4.89291760    19.17582935    14.39431218
H     2.87656708    12.02704249     0.51644873
H     1.58484986    11.17337737     0.53697450
H     9.41803962    12.82141608    15.60643879
H     8.08964494    13.29395793    15.24694797
H    18.33078204     8.06572094    11.47524792
H    17.74448988     7.68503076    10.23439739
H     9.91795861     7.77182053    11.81413913
H     9.46826286     9.16929060    12.10046086
H     1.81580811    -0.35794725     6.30948879
H     0.91790245    -0.65114659     5.15031358
H    12.02663082    -0.46351678     5.14738874
H    12.23645082    -0.62726504     3.66191294
H     6.32848409    10.48160302     1.48109455
H     7.25999484     9.60805772     2.57982431
H    -0.48736333     4.02116153    -0.29489102
H    -1.25811585     3.15253893     0.72652237
H    12.07805252     9.62708527     4.70034057
H    11.11709380    10.67928455     4.87835206
H     1.96703972     5.06850685    -3.05152371
H     3.05077094     4.00983055    -2.83303492
H     8.81552235     6.45126389    10.38353472
H    10.13187928     6.64530232     9.71537518
H     3.24249871     0.44873057     3.01979704
H     4.25671811    -0.12706848     4.02162979
H    13.05821634    20.23437926    10.93358336
H    12.77074844    19.16170161    11.96946294
H    11.05924304     3.99347103    16.66932893
H    10.78787952     2.70815105    17.43105059
H     8.65111257     7.50636090    13.55624266
H     7.27326580     7.69950984    14.21198318
H    18.38706454     1.24733643     0.30414951
H    18.77175118     2.53593426     1.03548997
H    -0.00831355     5.58109522     9.31351112
H    -1.08722867     4.88155067     8.64398621
H    12.96456536     2.49513697     9.76868761
H    14.03779075     1.57529718    10.19653952
H     0.71983161    19.69502998    13.85469329
H     1.59450355    19.82802704    15.01977215
H     4.85886680    -1.10916663    14.52217028
H     3.42051906    -1.21966937    14.27349395
H    14.54940286     7.88837930    21.13352616
H    15.75367539     7.10215400    20.73822200
O     4.76836083    13.50302443    11.17238640
O    12.06819799    14.79845196    13.16331613
O    11.12756937    12.77930653    15.12118822
O    10.64056460    16.43750390     9.95465163
O     1.80729190     7.45324790     5.28192542
O     0.38609726    11.38876711    10.09088553
O    13.55528572    19.27705635     5.90265571
O     7.00209939    12.22524896    -2.79899641
O    16.59630784     0.90503279    -0.14853018
O     3.19153712    11.86838045     9.61610540
O    10.21728020    16.86358295    16.34032234
O     8.87202483    10.68388406    11.74989469
O    11.20645628    -0.86311556     7.02657510
O    13.45450385     8.06209087     9.31126345
O     7.00208338     7.33201817     7.37617876
O    11.54097680    -3.52005265     6.54482272
O    15.64580975     8.34236124    15.68394213
O    -1.68796753    12.46211076     5.26434677
O     6.78933742     6.90749295    10.02608343
O     7.07092158     4.67206451     1.02376399
O     6.42364901    15.52268996    10.33109099
O     0.37845072    13.80954448    12.12212415
O    16.14825383     4.09651615     2.99422946
O    -0.03279456     8.66093578    12.85110423
O     8.60915074    12.55730135     9.18022530
O     6.46417141     9.17037785    13.93217033
O    -0.63753546    11.35047884    18.85335574
O     6.56963080     4.40078769     6.07561744
O     3.16319602     3.35325056     9.67103720
O     5.28787884     0.74840048    13.08970039
O     2.50539133     1.35865845     7.37140917
O     5.46227134    15.49192333     5.24895466
O    11.26528745     6.42618013     8.38663240
O    12.81981144     6.66341928    13.48414843
O     7.99370656     0.34923509     2.11816500
O    10.95893102    -1.76561996     2.90165308
O    -1.06103463    -0.58720502     2.58619981
O    15.66373260     5.47845359    12.78452951
O     5.01217671    -5.87332757     8.75513484
O    14.20972131    11.07264962    -1.44013029
O    16.38174066    16.63265498     4.41839600
O     2.85500192    12.46096436    22.37029878
O    11.29009858     8.88482945     6.88232699
O     8.71580776     5.04021396     3.11131810
O    11.64124564    10.21295329    14.28626738
O     7.48639423     1.81745359     7.51149345
O     2.88643193     7.86717801     1.14901851
O     9.31641586    -5.07226456     7.53703136
O    18.32359558    11.78139793     4.12751946
O    15.56902725    12.78381310     0.37515646
O     8.28832269     1.79846870    -4.60036834
O     3.97665967    13.02658818    17.84599393
O     9.94138857     6.76727779     0.72461786
O    10.45213257    13.84430015    10.93116738
O    11.33298258     3.71678377     9.28540208
O     4.89522731    15.13971318     7.79775690
O    13.78592635    14.61908902     8.63560402
O     8.88074414     4.11506421     8.31538001
O     6.14625043     9.44688577    -4.46553655
O    -4.29405889    11.13988483    10.79593758
O     5.90677656     4.08113121     8.73826456
O     7.72535466    14.77572849    -1.83689822
O     8.65599802    -0.87156696     7.48307022
O     6.97940356     4.26168390    11.33779010
O    10.75602036     3.59539344     5.04395829
O    -0.19590942    17.85103934     7.12294865
O     2.72537139    18.18200664    18.78528919
O    13.42107560     7.49346659     2.55407713
O    15.13750999    11.90161153     7.69665536
O    16.95913874     5.78318889     0.60415150
O    12.24698305    15.09758973    16.56880509
O    13.12572656     4.62079532     3.25566849
O     5.35947192    11.30938784    15.43737318
O     9.13491499     1.54681673    13.75677138
O    11.64906546     5.04088456    -0.31566358
O     1.77599381     5.89781204     8.86352636
O     9.07493007     6.13268706     5.76893206
O     2.05505160     9.68528267     6.92954827
O    -7.64579905    12.76402611    18.69138931
O     8.71787544     9.96123806     3.99228506
O     4.53468937     2.81521865     5.33603099
O    11.81116990     9.09422979    16.58858527
O     5.16802044     6.93874521     5.02075124
O    -0.93836320    15.13996617    14.08982906
O     6.65875151    20.16922809    13.98449092
O     5.37611077    -0.43569650     1.03618066
O     1.90761980    11.89364781    13.05221924
O     3.12237994     0.62453940    10.89708113
O     8.30261049     2.61758654     4.28549567
O    12.51314991    11.51232376    17.60889600
O    13.74753784    -5.72397524     6.31580676
O     6.62972580    -5.53256508     6.33958576
O    12.29078914     1.69416298    -3.83035880
O     4.54129632     9.68167103     4.45293295
O     1.36138542     9.11619368     2.94777768
O     4.00389237    10.34422394    12.63577791
O    17.88466146    14.16748529    15.60162954
O     0.77129131    14.83837055     9.24980808
O    10.08227700     7.55559372     3.62315346
O     5.65271662     7.10351792     1.57482732
O    11.57353691     1.73602983     7.11263775
O     7.27561997    -2.43217509     5.53377271
O     3.82008312     7.37545945     7.75605941
O    19.67371538     7.08524964    12.31356153
O    -1.82414149    10.17352657    11.22697181
O    15.06316640     1.90362074     1.67042566
O     4.18160337    18.71795528    13.92705464
O     2.48148697    11.19541188     0.14417114
O     8.53830119    12.86960366    16.01666552
O    17.63539766     8.37015876    10.89533740
O     9.85784883     8.41028463    12.58809055
O     1.32177756    -1.09563102     5.95803723
O    12.61548730    -0.22519606     4.41948868
O     6.31069804     9.68526036     2.09590654
O    -1.35362300     3.72745041    -0.10374812
O    11.72333969    10.34123634     4.18975859
O     2.79968586     4.75516747    -3.45846804
O     9.72294420     6.69537654    10.55408458
O     3.39827243    -0.29561451     3.56206931
O    13.11617734    20.06156589    11.85622000
O    10.87914335     3.66239486    17.55992698
O     7.96605079     7.03118989    14.05793999
O    19.18785425     1.86799240     0.52380407
O    -0.97484553     5.55386856     9.34398471
O    13.64930658     1.88759708     9.36894980
O     1.13873793    19.14043393    14.49031293
O     4.28690738    -1.61834591    13.97230498
O    14.80673122     7.12699957    20.52774835
